<?xml version='1.0' encoding='utf-8'?>
<routes><vType id="car" accel="2.6" decel="4.5" maxSpeed="20" length="5" /><route id="route_1" edges="536508578#1 513323690 303095471#0 303095471#1 303095471#2 303095471#3 311969793#0 311969793#1 311969793#2 311969793#3 311971947#0 311971947#1 219151002#0 219151002#1 219151002#2 219151002#3 219151002#4 303095472#0 303095472#1 303095472#2 303095472#3 311974918 311852072#0 311852072#1 311852072#2 311852072#3 311852072#4 311852072#5 311852072#6 527026788#0 527026788#1 -39906399#2 -39906399#1 -39906399#0 39654082#2 311852069 311852070 194553105#0 1046986066 39700527#0 39700527#1 39700527#2 311915240#0 311915240#1 311915240#2 311915240#3 39700528#0 39700528#1 39700528#2 39700528#3 311915242#0 311915242#1 311915242#2 311915242#3 311915241#0 311915241#1 14819629#7 14819629#8 302455730#0 302455730#1 302455730#2" /><vehicle id="veh_1" type="car" route="route_1" depart="0" /><route id="route_2" edges="263445184#3 263445184#4 263445184#5 263445184#6 263445184#7 263445184#8 263445184#9 311969796#0 311969796#1 311969795#0 311969795#1 311974918 311852072#0 311852072#1 311852072#2 311852072#3 311852072#4 311852072#5 311852072#6 527026788#0 527026788#1 -39906399#2 -39906399#1 -39906399#0 -1107098165 311852084 27404816 729221689 311915236#0 311915236#1 311915236#2 311915236#3 311915236#4 311915236#5 311915236#6 311852076 311852077#0 311852077#1 311852077#2 311852077#3 -303052631#9 -303052631#8 -303052631#7 -303052631#6 -303052631#5 -303052631#4 -303052631#3 -303052631#2 -303052631#1" /><vehicle id="veh_2" type="car" route="route_2" depart="10" /><route id="route_3" edges="-303093350#5 -303093350#4 -303093350#3 -303093350#2 -303093350#1 -303093350#0 -304748781#6 -304748781#5 -304748781#4 -304748781#3 -304748781#2 -304748781#1 -304748781#0 -303073600#4 -303073600#3 -303073600#2 -303073600#1 -303073600#0 -311961747 -24509127 -335068584#7 -335068584#6 -335068584#5 -335068584#4 -335068584#3 -335068584#2 -335068584#1 -335068584#0 178573156#2 178573156#3 178573156#0 -311985344#1 -311985344#0 -24509123#1 -24509123#0 24509126#0 24509126#1 24509126#2 24509126#3 24509126#4 24509126#5 27404811#0 27404811#1 1099430574 39654082#0 39654082#1 39654082#2 311852069 311852070 39654086#0 39654086#1 39654086#2 24271870#0 24271870#1 24271870#2 24271870#3 24271870#4 24271870#5 24271870#6 311852075 311852074 302449599#0 302449599#1 311904088 302449596" /><vehicle id="veh_3" type="car" route="route_3" depart="20" /></routes>